Version 4
SHEET 1 1396 680
WIRE 1216 -112 1168 -112
WIRE 1392 -112 1296 -112
WIRE 560 -96 496 -96
WIRE 880 -96 640 -96
WIRE 1168 80 1168 -112
WIRE 1216 80 1168 80
WIRE 304 96 64 96
WIRE 496 96 496 -96
WIRE 528 96 496 96
WIRE 1392 96 1392 -112
WIRE 1392 96 1280 96
WIRE 736 112 592 112
WIRE 880 112 880 -96
WIRE 880 112 800 112
WIRE 976 112 880 112
WIRE 1072 112 976 112
WIRE 1216 112 1152 112
WIRE 304 128 304 96
WIRE 384 128 304 128
WIRE 528 128 464 128
WIRE 880 144 880 112
WIRE 976 144 976 112
WIRE 64 160 64 96
WIRE 128 160 64 160
WIRE 304 176 304 128
WIRE 304 176 192 176
WIRE 128 192 -128 192
WIRE -128 208 -128 192
WIRE 880 240 880 224
WIRE 976 240 976 208
FLAG 160 208 0
FLAG -128 288 0
FLAG -144 -32 0
FLAG -144 -112 POS3P3
FLAG 160 144 POS3P3
FLAG 560 144 0
FLAG 560 80 POS3P3
FLAG 880 240 0
FLAG 976 240 0
FLAG 1248 128 0
FLAG 1248 64 POS3P3
SYMBOL Misc\\signal -128 192 R0
WINDOW 123 0 0 Left 2
WINDOW 39 0 0 Left 2
SYMATTR InstName V1
SYMATTR Value SINE(1.65 1 60)
SYMBOL voltage -144 -128 R0
SYMATTR InstName V2
SYMATTR Value 3.3
SYMBOL diode 736 128 R270
WINDOW 0 32 32 VTop 2
WINDOW 3 0 32 VBottom 2
SYMATTR InstName D2
SYMATTR Value 1N4148
SYMBOL Opamps\\LTC6240 160 176 R0
SYMATTR InstName U1
SYMBOL res 480 112 R90
WINDOW 0 0 56 VBottom 2
WINDOW 3 32 56 VTop 2
SYMATTR InstName R6
SYMATTR Value 10k
SYMBOL Opamps\\LTC6240 560 112 R0
SYMATTR InstName U2
SYMBOL res 656 -112 R90
WINDOW 0 0 56 VBottom 2
WINDOW 3 32 56 VTop 2
SYMATTR InstName R1
SYMATTR Value 10k
SYMBOL res 864 128 R0
SYMATTR InstName R2
SYMATTR Value 1Meg
SYMBOL cap 960 144 R0
SYMATTR InstName C1
SYMATTR Value 10µ
SYMBOL res 1168 96 R90
WINDOW 0 0 56 VBottom 2
WINDOW 3 32 56 VTop 2
SYMATTR InstName R3
SYMATTR Value 1k
SYMBOL Opamps\\LTC6240 1248 96 R0
SYMATTR InstName U3
SYMBOL res 1312 -128 R90
WINDOW 0 0 56 VBottom 2
WINDOW 3 32 56 VTop 2
SYMATTR InstName R4
SYMATTR Value 1k
TEXT -178 344 Left 2 !.tran 0.6
