Version 4
SHEET 1 880 680
WIRE -256 0 -384 0
WIRE -112 0 -256 0
WIRE -384 32 -384 0
WIRE -256 32 -256 0
WIRE -112 96 -112 0
WIRE -32 96 -112 96
WIRE 112 96 32 96
WIRE 208 96 112 96
WIRE 112 112 112 96
WIRE -112 128 -112 96
WIRE -384 144 -384 96
WIRE -368 144 -384 144
WIRE -256 144 -256 96
WIRE -256 144 -288 144
WIRE -384 192 -384 144
WIRE -256 192 -256 144
WIRE 112 192 112 176
WIRE 208 192 112 192
WIRE 480 192 400 192
WIRE -112 224 -112 208
WIRE 112 224 112 192
WIRE 480 224 480 192
WIRE -384 272 -384 256
WIRE -256 272 -256 256
WIRE 480 320 480 304
FLAG 480 320 0
FLAG 352 -96 0
FLAG 352 -176 POS3P3
FLAG 400 96 POS3P3
FLAG 480 192 VOUT
FLAG -256 272 0
FLAG -384 272 0
FLAG -112 224 0
FLAG 112 224 0
SYMBOL Optos\\PC817A 304 144 R0
SYMATTR InstName U1
SYMBOL res 464 208 R0
SYMATTR InstName R1
SYMATTR Value 100k
SYMBOL voltage 352 -192 R0
SYMATTR InstName V1
SYMATTR Value 3.3
SYMBOL diode 128 176 R180
WINDOW 0 24 64 Left 2
WINDOW 3 24 0 Left 2
SYMATTR InstName D1
SYMATTR Value BAS21HM
SYMBOL cap 32 80 R90
WINDOW 0 0 32 VBottom 2
WINDOW 3 32 32 VTop 2
SYMATTR InstName C1
SYMATTR Value 4.7n
SYMBOL res -128 112 R0
SYMATTR InstName R2
SYMATTR Value 100k
SYMBOL Misc\\signal -272 144 R90
WINDOW 0 -32 56 VBottom 2
WINDOW 3 32 56 VTop 2
WINDOW 123 0 0 Left 2
WINDOW 39 0 0 Left 2
SYMATTR InstName V2
SYMATTR Value SINE(0 170 60)
SYMBOL diode -368 96 R180
WINDOW 0 24 64 Left 2
WINDOW 3 24 0 Left 2
SYMATTR InstName D2
SYMATTR Value BAS21HM
SYMBOL diode -240 96 R180
WINDOW 0 24 64 Left 2
WINDOW 3 24 0 Left 2
SYMATTR InstName D3
SYMATTR Value BAS21HM
SYMBOL diode -368 256 R180
WINDOW 0 24 64 Left 2
WINDOW 3 24 0 Left 2
SYMATTR InstName D4
SYMATTR Value BAS21HM
SYMBOL diode -240 256 R180
WINDOW 0 24 64 Left 2
WINDOW 3 24 0 Left 2
SYMATTR InstName D5
SYMATTR Value BAS21HM
TEXT -508 344 Left 2 !.tran 0.05
